           9
  -154.89579762550628     
 C  3.70790113332040150E-002  2.03516676483864178E-003 -2.64587806633864719E-003
 C  1.49614319439734800E-002 -3.86339700665857544E-002 -2.47727422935972719E-003
 O -3.13416975993820734E-002 -5.11870261685550276E-002  3.71369632186890897E-002
 H -1.85935778501724880E-002  1.59257658355900222E-002  1.15782530224586844E-002
 H  1.24181542820765989E-002  5.26882718902077496E-003 -1.35337187266274528E-002
 H -2.10943981206417608E-002  1.79770512767987237E-002 -7.70937005251733087E-003
 H -5.05012407884397607E-003  1.07767679440427810E-002  1.14616093562944082E-002
 H -1.06468134378999435E-002 -6.30274297973160147E-004  4.88989620581645190E-003
 H  2.22680135276674684E-002  3.84676915228314847E-002 -3.87004807284153651E-002
           9
  -154.88836205138512     
 C  0.10681981906660809      -1.61700181667154830E-002  4.14086049450144156E-002
 C  7.01509783495923855E-003 -1.05171636137546542E-003  1.82678078795592835E-002
 O -3.48333711813535452E-002  3.94203982691562205E-002  4.23951935001419811E-002
 H -1.01979341644183319E-002  3.07550417480983995E-004 -8.34993510127757244E-003
 H -4.35171452006354320E-002 -1.27327395533168020E-002 -5.02595297262051766E-002
 H -2.69126029087046748E-004  1.64969784383402589E-002  9.35074509514882690E-003
 H -2.83538783284273121E-002 -1.01703450177753271E-003 -7.21698036264734229E-003
 H  7.99062348320778160E-004 -1.68766342151877580E-002 -2.42120469075213507E-002
 H  2.53747565403803638E-003 -8.37678432660196592E-003 -2.13838593222209217E-002
           9
  -154.89201047256637     
 C  3.46086001247547514E-002 -1.21395831880541927E-002  2.18651413796004945E-002
 C -3.15592671411906167E-002  5.90876681447638497E-002  4.34938914696876289E-002
 O -1.34190304962122919E-002 -9.39705088137721134E-003  7.46569774826050248E-003
 H -9.61613001869957018E-003  2.12938583243321017E-003 -2.43277380771551588E-002
 H -1.05614209314782714E-002  2.38459614701200806E-002 -3.79672129309174822E-003
 H -1.82908731973730476E-002 -3.68228752891919808E-002 -2.50582267397712020E-002
 H  1.74820042174555212E-002 -3.78096664543930983E-003 -4.29445947809337092E-003
 H  2.66185821993662752E-002 -2.42673005570472958E-002 -1.39773924925792742E-002
 H  4.73753524338665910E-003  1.34476111378257351E-003 -1.37019251687171134E-003
           9
  -154.88392262937913     
 C -4.24087276544886649E-002  3.53169892629192628E-002  1.20012734712044988E-002
 C  5.33615504753655046E-002 -5.12647318303215416E-002  2.07761417197609433E-002
 O -2.41791444306960202E-002 -4.04598898186261102E-002  2.57610483061268547E-002
 H  1.68909982692849181E-002 -3.81840583451270588E-002 -2.06038686925331671E-002
 H -1.83579195461597289E-003 -5.12102668987046705E-004  1.12113559546087593E-002
 H -7.95805928818067720E-003 -3.86703291918331915E-003 -3.06111330517592484E-002
 H  1.21014592927492504E-002  4.43912261447134415E-002 -1.53645627593923528E-003
 H -2.19226501065477586E-002  1.11334557301809509E-002  1.54391662273798552E-002
 H  1.59503653971221904E-002  4.34461444444265710E-002 -3.24375276588835526E-002
           9
  -154.87258934473184     
 C  3.71791537275969475E-002  5.45160456031267282E-002  3.70117880247275988E-002
 C -3.81148828352628755E-002 -4.61706439473505981E-002 -3.38144537862665739E-002
 O  2.32990745734740212E-003  3.96590573592492390E-003 -8.13329449013189265E-003
 H -1.46466122528536857E-002 -9.29715040579531804E-003  2.18136548529501706E-002
 H  1.24665779268690047E-002 -1.25830644737541242E-002 -2.37583851404083723E-002
 H  1.64357522502429632E-002  1.82369809678544076E-002 -2.75627686803532612E-003
 H -1.21447821654012827E-002  1.61277715431570323E-002  8.99712455766391722E-003
 H  7.31880728772263400E-003  6.31166687395304238E-003  3.88229095586015149E-003
 H -1.08239213962681435E-002 -3.11075118971184256E-002 -3.24244810635598846E-003
           9
  -154.88721034461491     
 C -4.29194728047077589E-003  3.31575510134589635E-002 -4.98561771767527251E-002
 C -2.98522872745881074E-002 -4.04521971936500080E-003 -1.38719995683824759E-002
 O  4.66871270222185553E-002  6.91437076588488631E-003 -5.18357636035782221E-003
 H -1.42177191423277505E-003 -3.77571040409058201E-003  4.94584187367289596E-002
 H -3.79339389161975626E-002 -2.70860093902247634E-003 -8.69568885286486903E-003
 H  2.58020700340021447E-002 -1.74128145071922313E-003 -4.79101499126038943E-003
 H -1.17321208435559928E-002  2.14926248066626968E-005 -8.28001622861433695E-003
 H  2.07640103471198045E-002 -2.59842233895394292E-002  3.84013520529208757E-002
 H -8.02114117430624551E-003 -1.83837850140075587E-003  2.81870238857104272E-003
           9
  -154.89510166311771     
 C -4.22895042554216616E-004 -2.70059825098888373E-002  1.09041280989561340E-002
 C -7.95437912636032252E-004 -5.23592318550614166E-003  1.46432346474784092E-002
 O -1.26074285750722714E-002  2.48454321046764348E-002 -3.85766225189786427E-002
 H  1.80132528028451033E-002 -2.54697729130737294E-003 -6.71695660163493073E-003
 H -1.82329302865968934E-003  2.05378445500524198E-002  1.11315355181479392E-002
 H  1.23518139022985030E-003 -6.48997742463926219E-003 -2.09153129418735428E-002
 H  6.70206281454566177E-003  5.38541334594195426E-003  9.57458992923913843E-003
 H -1.70637102361666793E-002 -6.59834359474621712E-003  4.49988187386803767E-003
 H  6.76226778748384438E-003 -2.89148599459926325E-003  1.54555219947999922E-002
           9
  -154.88652488006537     
 C -1.01728635091472841E-002 -3.89505619313821327E-002 -1.23526355655867448E-003
 C -5.45997045101780099E-002 -8.69035088663672184E-003  2.61108718750047153E-002
 O  9.97347357260691680E-003 -7.94246047922808618E-003 -1.04988708720222534E-002
 H -5.74975104800368175E-004  2.10001744599842555E-002 -4.38307036673291073E-003
 H  2.13494057197343157E-002  1.20832563445052443E-002 -2.15863138511357411E-003
 H  3.57423652413280113E-002  1.20140702666149957E-002  2.74478493921327810E-002
 H  5.98842003318894589E-003 -4.44100530810060540E-003 -2.21394108382583499E-002
 H  1.26020660615291935E-003 -2.55694400854414305E-003 -2.36084025760016081E-002
 H -8.96632804889818669E-003  1.74838215427940424E-002  1.04649283275753402E-002
           9
  -154.89001459155318     
 C  9.82969863927429799E-003 -2.12987438717160416E-002 -1.35247845040264991E-003
 C  1.92420825413175400E-003  3.32851295479192899E-002  3.95482065242580560E-003
 O -1.21643466238409159E-002  2.79287019831888639E-002 -1.90662286962601998E-002
 H -1.90175827192801128E-004 -2.41253182880457606E-003  2.48227350223813037E-002
 H -1.85589830647483467E-002  1.18687860479991941E-002 -1.84386617676379760E-003
 H  7.73607615051935538E-004 -6.32314071636279340E-003 -7.88338742813324278E-003
 H -8.54313978370812091E-004 -1.65565297295029584E-002 -2.23218242545975831E-002
 H  2.19579599695812755E-003 -8.49800111144366488E-003  1.43963673095643813E-002
 H  1.70445089887441559E-002 -1.79936703212800198E-002  9.29386202179473264E-003
           9
  -154.90525409363832     
 C -1.43760930267822218E-002 -1.95743271172332811E-004 -4.33238252877239383E-002
 C -4.56508457402806656E-002  1.79638503491628132E-002  1.59285603494823125E-002
 O  2.60349455850560352E-002  8.27284287265200868E-003  1.49121988344432799E-002
 H -3.20788812604688722E-003  8.76338314725666478E-004  1.20439937339272829E-003
 H  1.79850162302344629E-003 -1.03381227609914417E-002  1.23185806135879261E-002
 H  1.73587415807069934E-002 -1.81768804026728736E-002 -8.95449887193613958E-003
 H  2.05698976571177528E-002  2.31462259250310443E-003  1.01973516573384895E-002
 H  8.75459185096730264E-003 -5.62039941832181977E-004 -1.05834714868029978E-002
 H -1.12818514037724138E-002 -1.54867752377885193E-004  8.30070481820505135E-003
